Version 4
SHEET 1 1124 680
WIRE 96 96 48 96
WIRE 272 96 176 96
WIRE 384 96 272 96
WIRE 464 112 448 112
WIRE 528 112 464 112
WIRE 672 112 608 112
WIRE 784 112 752 112
WIRE 384 128 352 128
WIRE 48 160 48 96
WIRE 272 160 272 96
WIRE 352 160 352 128
WIRE 464 160 464 112
WIRE 464 160 352 160
WIRE 784 160 784 112
WIRE 48 256 48 240
WIRE 272 256 272 224
WIRE 272 256 48 256
WIRE 784 256 784 224
WIRE 784 256 272 256
WIRE 48 288 48 256
FLAG 48 288 0
FLAG 48 96 Vi
IOPIN 48 96 In
FLAG 784 112 Vo
IOPIN 784 112 Out
SYMBOL res 192 80 R90
WINDOW 0 0 56 VBottom 2
WINDOW 3 32 56 VTop 2
SYMATTR InstName R1
SYMATTR Value {R1}
SYMBOL cap 256 160 R0
SYMATTR InstName C1
SYMATTR Value {C1}
SYMBOL voltage 48 144 R0
WINDOW 123 24 124 Left 2
WINDOW 39 0 0 Left 0
SYMATTR InstName V1
SYMATTR Value ""
SYMATTR Value2 AC 1 0
SYMBOL res 624 96 R90
WINDOW 0 0 56 VBottom 2
WINDOW 3 32 56 VTop 2
SYMATTR InstName R2
SYMATTR Value {R2}
SYMBOL ind 656 128 R270
WINDOW 0 32 56 VTop 2
WINDOW 3 5 56 VBottom 2
SYMATTR InstName L2
SYMATTR Value {L2}
SYMBOL cap 768 160 R0
SYMATTR InstName C2
SYMATTR Value {C2}
SYMBOL OpAmps\\opamp 416 176 M180
SYMATTR InstName U1
TEXT 96 328 Left 2 !.ac dec 1000 0.01 100
TEXT 112 384 Left 2 !.param R={1} Q={1} w0={1}\n.param R1={R} C1={1/(R1*w0)}\n.param R2={R} L2={(Q*R2)/w0} C2={w0/(Q*R2)}
TEXT 568 328 Left 2 !.lib opamp.sub
